Circuit: * C:\Users\phili\Documents\GitHub\STM32AnalogExtension\Software\SimAusgangsspannung\Draft1.asc

WARNING: Less than two connections to node NC_01.  This node is used by R1.
Direct Newton iteration failed to find .op point.  (Use ".option noopiter" to skip.)
Starting Gmin stepping
Gmin = 10
Gmin = 1.07374
Gmin = 0.115292
Gmin = 0.0123794
Gmin = 0.00132923
Gmin = 0.000142725
Gmin = 1.5325e-005
Gmin = 1.6455e-006
Gmin = 1.76685e-007
Gmin = 1.89714e-008
Gmin = 2.03704e-009
Gmin = 2.18725e-010
Gmin = 2.34854e-011
Gmin = 2.52173e-012
Gmin = 2.70769e-013
Gmin = 0
Gmin stepping succeeded in finding the operating point.


Date: Tue Nov 26 09:49:06 2019
Total elapsed time: 0.084 seconds.

tnom = 27
temp = 27
method = modified trap
totiter = 3362
traniter = 2893
tranpoints = 1310
accept = 1251
rejected = 59
matrix size = 9
fillins = 0
solver = Normal
Matrix Compiler1: 314 bytes object code size  0.1/0.1/[0.0]
Matrix Compiler2: off  [0.1]/0.1/0.1

