Circuit: * C:\Users\phili\Documents\GitHub\STM32AnalogExtension\Software\SimAusgangsspannung\SimAusgangsspannung.asc

WARNING: Node NC_01 is floating.
WARNING: Node NC_02 is floating.

WARNING: Less than two connections to node NC_01.  This node is used by C1.
WARNING: Less than two connections to node NC_02.  This node is used by C1.
Direct Newton iteration for .op point succeeded.

Date: Tue Nov 26 13:26:19 2019
Total elapsed time: 0.067 seconds.

tnom = 27
temp = 27
method = modified trap
totiter = 2405
traniter = 2402
tranpoints = 1202
accept = 1202
rejected = 0
matrix size = 9
fillins = 0
solver = Normal
Matrix Compiler1: 314 bytes object code size  0.1/0.1/[0.0]
Matrix Compiler2: off  [0.1]/0.1/0.1

